/*--------------------------------*- C++ -*----------------------------------*\
| =========                 |                                                 |
| \\      /  F ield         | OpenFOAM: The Open Source CFD Toolbox           |
|  \\    /   O peration     | Version:  2206                                  |
|   \\  /    A nd           | Website:  www.openfoam.com                      |
|    \\/     M anipulation  |                                                 |
\*---------------------------------------------------------------------------*/
FoamFile
{
    version     2.0;
    format      ascii;
    arch        "LSB;label=32;scalar=64";
    class       featureEdgeMesh;
    location    "constant/triSurface";
    object      Walls.eMesh;
}
// * * * * * * * * * * * * * * * * * * * * * * * * * * * * * * * * * * * * * //


// points:

36
(
(-0.309029 0.0745735 0.152294)
(-0.309029 0.152294 0.152294)
(-0.309029 0.152294 -0.00112154)
(-0.309029 0.0745735 -0.00112153)
(0.307047 0.0745735 -0.00112153)
(0.307047 0.152294 -0.00112154)
(0.607572 0.152294 -0.00112154)
(0.607572 0.0745735 -0.00112153)
(0.607572 0.152294 0.152294)
(0.607572 0.0745735 0.152294)
(0.255958 0.0745735 0.152294)
(0.255958 0.152294 0.152294)
(0.307047 -0.152294 -0.00112152)
(0.607572 -0.152294 -0.00112152)
(0.607572 -0.152294 0.152294)
(0.307047 -0.152294 0.152294)
(0.255958 0.152294 -0.00112154)
(0.307047 0.152294 0.152294)
(0.255958 -0.152294 -0.00112152)
(0.255958 -0.152294 0.152294)
(0.307047 0.0745735 0.152294)
(0.255958 0.0745735 -0.00112153)
(-0.309029 -0.152294 -0.00112152)
(-0.309029 -0.152294 0.152294)
(0.307047 -0.0502034 0.152294)
(0.255958 -0.0502034 0.152294)
(-0.309029 -0.0502034 -0.00112153)
(0.255958 -0.0502034 -0.00112153)
(0.307047 -0.0502034 -0.00112153)
(0.307047 -0.0502034 0.082613)
(0.307047 0.0745735 0.082613)
(0.607572 -0.0502034 0.152294)
(-0.309029 -0.0502034 0.152294)
(0.607572 -0.0502034 -0.00112153)
(0.255958 -0.0502034 0.082613)
(0.255958 0.0745735 0.082613)
)


// edges:

102
(
(0 1)
(1 2)
(2 3)
(5 6)
(6 7)
(6 8)
(8 9)
(11 1)
(12 13)
(13 14)
(14 15)
(16 2)
(17 8)
(18 12)
(15 19)
(16 5)
(4 21)
(22 18)
(23 22)
(19 23)
(11 17)
(26 3)
(21 27)
(4 28)
(31 9)
(0 32)
(33 7)
(23 32)
(26 22)
(33 13)
(31 14)
(27 28)
(28 29)
(29 30)
(30 4)
(35 30)
(34 35)
(29 34)
(27 34)
(35 21)
(7 4)
(21 3)
(2 0)
(3 0)
(6 4)
(4 5)
(8 7)
(9 7)
(1 10)
(10 11)
(0 10)
(14 12)
(15 12)
(1 16)
(11 16)
(17 6)
(5 17)
(15 18)
(19 18)
(17 9)
(17 20)
(20 9)
(5 21)
(21 16)
(16 3)
(19 22)
(11 5)
(11 20)
(10 20)
(10 24)
(24 20)
(10 25)
(25 24)
(21 26)
(27 26)
(29 4)
(20 31)
(24 31)
(0 25)
(32 25)
(9 33)
(31 33)
(7 28)
(33 28)
(3 32)
(26 32)
(26 23)
(33 12)
(12 28)
(31 13)
(32 19)
(19 25)
(24 14)
(24 15)
(28 18)
(18 27)
(27 22)
(25 15)
(30 34)
(34 28)
(30 21)
(35 27)
)

// * * * * * * * * * * * * * * * * * * * * * * * * * * * * * * * * * * * * * //


// ************************************************************************* //
