/*--------------------------------*- C++ -*----------------------------------*\
| =========                 |                                                 |
| \\      /  F ield         | OpenFOAM: The Open Source CFD Toolbox           |
|  \\    /   O peration     | Version:  2206                                  |
|   \\  /    A nd           | Website:  www.openfoam.com                      |
|    \\/     M anipulation  |                                                 |
\*---------------------------------------------------------------------------*/
FoamFile
{
    version     2.0;
    format      ascii;
    arch        "LSB;label=32;scalar=64";
    class       extendedFeatureEdgeMesh;
    location    "constant/extendedFeatureEdgeMesh";
    object      Walls.extendedFeatureEdgeMesh;
}
// * * * * * * * * * * * * * * * * * * * * * * * * * * * * * * * * * * * * * //

// points

36
(
(-0.309029 0.0745735 0.152294)
(-0.309029 0.152294 0.152294)
(-0.309029 0.152294 -0.00112154)
(-0.309029 0.0745735 -0.00112153)
(0.307047 0.0745735 -0.00112153)
(0.307047 0.152294 -0.00112154)
(0.607572 0.152294 -0.00112154)
(0.607572 0.0745735 -0.00112153)
(0.607572 0.152294 0.152294)
(0.607572 0.0745735 0.152294)
(0.255958 0.0745735 0.152294)
(0.255958 0.152294 0.152294)
(0.307047 -0.152294 -0.00112152)
(0.607572 -0.152294 -0.00112152)
(0.607572 -0.152294 0.152294)
(0.307047 -0.152294 0.152294)
(0.255958 0.152294 -0.00112154)
(0.307047 0.152294 0.152294)
(0.255958 -0.152294 -0.00112152)
(0.255958 -0.152294 0.152294)
(0.307047 0.0745735 0.152294)
(0.255958 0.0745735 -0.00112153)
(-0.309029 -0.152294 -0.00112152)
(-0.309029 -0.152294 0.152294)
(0.307047 -0.0502034 0.152294)
(0.255958 -0.0502034 0.152294)
(-0.309029 -0.0502034 -0.00112153)
(0.255958 -0.0502034 -0.00112153)
(0.307047 -0.0502034 -0.00112153)
(0.307047 -0.0502034 0.082613)
(0.307047 0.0745735 0.082613)
(0.607572 -0.0502034 0.152294)
(-0.309029 -0.0502034 0.152294)
(0.607572 -0.0502034 -0.00112153)
(0.255958 -0.0502034 0.082613)
(0.255958 0.0745735 0.082613)
)

// edges

102
(
(0 1)
(1 2)
(2 3)
(5 6)
(6 7)
(6 8)
(8 9)
(11 1)
(12 13)
(13 14)
(14 15)
(16 2)
(17 8)
(18 12)
(15 19)
(16 5)
(4 21)
(22 18)
(23 22)
(19 23)
(11 17)
(26 3)
(21 27)
(4 28)
(31 9)
(0 32)
(33 7)
(23 32)
(26 22)
(33 13)
(31 14)
(27 28)
(28 29)
(29 30)
(30 4)
(35 30)
(34 35)
(29 34)
(27 34)
(35 21)
(7 4)
(21 3)
(2 0)
(3 0)
(6 4)
(4 5)
(8 7)
(9 7)
(1 10)
(10 11)
(0 10)
(14 12)
(15 12)
(1 16)
(11 16)
(17 6)
(5 17)
(15 18)
(19 18)
(17 9)
(17 20)
(20 9)
(5 21)
(21 16)
(16 3)
(19 22)
(11 5)
(11 20)
(10 20)
(10 24)
(24 20)
(10 25)
(25 24)
(21 26)
(27 26)
(29 4)
(20 31)
(24 31)
(0 25)
(32 25)
(9 33)
(31 33)
(7 28)
(33 28)
(3 32)
(26 32)
(26 23)
(33 12)
(12 28)
(31 13)
(32 19)
(19 25)
(24 14)
(24 15)
(28 18)
(18 27)
(27 22)
(25 15)
(30 34)
(34 28)
(30 21)
(35 27)
)

// concaveStart mixedStart nonFeatureStart
0 0 36
// internalStart flatStart openStart multipleStart
32 40 102 102
// normals

68
(
(-1 0 0)
(0 0 1)
(0 1 0)
(-1 0 -0)
(0 -4.34385e-08 -1)
(0 -4.34385e-08 -1)
(0 1 0)
(0 -4.34385e-08 -1)
(1 -0 0)
(0 -4.38504e-08 -1)
(0 1 -0)
(1 0 0)
(0 -0 1)
(0 -0 1)
(0 1 -0)
(0 -1 0)
(0 -4.33321e-08 -1)
(1 0 0)
(0 -1 0)
(0 0 1)
(0 -1 0)
(0 -4.33321e-08 -1)
(0 -1 0)
(0 0 1)
(0 -4.34385e-08 -1)
(0 1 0)
(0 -4.34385e-08 -1)
(0 -1 0)
(0 -4.34385e-08 -1)
(0 -4.38504e-08 -1)
(0 -1 0)
(0 -4.33321e-08 -1)
(0 -1 0)
(-1 0 0)
(0 0 1)
(0 1 -0)
(0 -0 1)
(-1 0 -0)
(0 -4.38504e-08 -1)
(1 -0 0)
(-1 0 0)
(0 -0 1)
(1 0 0)
(0 0 1)
(-1 0 0)
(1 -0 0)
(0 -4.38504e-08 -1)
(-1 0 0)
(0 -4.33321e-08 -1)
(1 -0 0)
(0 -0 1)
(0 -4.33321e-08 -1)
(0 1 0)
(0 0 1)
(0 -0 1)
(0 0 1)
(0 -0 1)
(0 0 1)
(0 0 1)
(0 -0 1)
(-1 0 0)
(0 1 -0)
(0 0 -1)
(0 -0 1)
(0 -4.33321e-08 -1)
(0 0 -1)
(0 -1 0)
(1 0 0)
)

// normal volume types

68
(
0
0
0
0
0
0
0
0
0
0
0
0
0
0
0
0
0
0
0
0
0
0
0
0
0
0
0
0
0
0
0
0
0
0
0
0
0
0
0
0
0
0
0
0
0
0
0
0
0
0
0
0
0
0
0
0
0
0
0
0
0
0
0
0
0
0
0
0
)

// normalDirections

102
(
2(1 -1)
2(1 -1)
2(1 -1)
2(1 -1)
2(1 -1)
2(1 -1)
2(1 -1)
2(1 -1)
2(1 -1)
2(1 -1)
2(1 -1)
2(1 -1)
2(1 -1)
2(1 -1)
2(1 -1)
2(1 -1)
2(1 -1)
2(1 -1)
2(1 -1)
2(1 -1)
2(1 -1)
2(1 -1)
2(1 -1)
2(1 -1)
2(1 -1)
2(1 -1)
2(1 -1)
2(1 -1)
2(1 -1)
2(1 -1)
2(1 -1)
2(1 -1)
2(1 -1)
2(1 -1)
2(1 -1)
2(1 -1)
2(1 -1)
2(1 -1)
2(1 -1)
2(1 -1)
2(1 -1)
2(1 -1)
2(1 -1)
2(1 -1)
2(1 -1)
2(1 -1)
2(1 -1)
2(1 -1)
2(1 -1)
2(1 -1)
2(1 -1)
2(1 -1)
2(1 -1)
2(1 -1)
2(1 -1)
2(1 -1)
2(1 -1)
2(1 -1)
2(1 -1)
2(1 -1)
2(1 -1)
2(1 -1)
2(1 -1)
2(1 -1)
2(1 -1)
2(1 -1)
2(1 -1)
2(1 -1)
2(1 -1)
2(1 -1)
2(1 -1)
2(1 -1)
2(1 -1)
2(1 -1)
2(1 -1)
2(1 -1)
2(1 -1)
2(1 -1)
2(1 -1)
2(1 -1)
2(1 -1)
2(1 -1)
2(1 -1)
2(1 -1)
2(1 -1)
2(1 -1)
2(1 -1)
2(1 -1)
2(1 -1)
2(1 -1)
2(1 -1)
2(1 -1)
2(1 -1)
2(1 -1)
2(1 -1)
2(1 -1)
2(1 -1)
2(1 -1)
2(1 -1)
2(1 -1)
2(1 -1)
2(1 -1)
)

// edgeNormals

102
(
2(0 1)
2(0 2)
2(3 4)
2(5 6)
2(7 8)
2(8 10)
2(11 12)
2(13 14)
2(15 16)
2(15 17)
2(18 19)
2(2 4)
2(10 12)
2(20 21)
2(22 23)
2(24 25)
2(26 27)
2(30 31)
2(32 33)
2(32 34)
2(35 36)
2(29 37)
2(38 39)
2(40 9)
2(41 42)
2(43 44)
2(45 46)
2(47 34)
2(33 48)
2(16 49)
2(17 50)
2(51 52)
2(40 61)
2(60 62)
2(60 27)
2(65 66)
2(65 67)
2(62 61)
2(52 67)
2(66 39)
2(7 9)
2(28 29)
2(0 3)
2(3 44)
2(5 7)
2(5 26)
2(8 11)
2(11 45)
2(13 1)
2(13 53)
2(1 54)
2(15 18)
2(18 20)
2(2 14)
2(14 25)
2(6 10)
2(6 35)
2(20 22)
2(22 30)
2(12 55)
2(55 36)
2(55 41)
2(24 26)
2(24 28)
2(4 28)
2(30 32)
2(25 35)
2(36 53)
2(53 56)
2(56 57)
2(56 58)
2(57 54)
2(57 59)
2(29 38)
2(38 48)
2(40 60)
2(41 58)
2(58 50)
2(54 43)
2(43 63)
2(45 42)
2(42 49)
2(9 46)
2(46 64)
2(44 37)
2(37 47)
2(47 33)
2(64 16)
2(64 21)
2(49 17)
2(63 34)
2(63 23)
2(50 19)
2(19 59)
2(51 21)
2(51 31)
2(48 31)
2(59 23)
2(65 62)
2(52 61)
2(27 66)
2(39 67)
)

// featurePointNormals

36
(
2(0 1)
3(0 1 2)
3(0 2 4)
2(3 4)
3(26 27 40)
2(5 6)
3(5 6 8)
2(7 8)
3(8 10 12)
2(11 12)
1(13)
2(13 14)
2(15 16)
3(15 16 17)
3(15 17 19)
2(18 19)
2(2 4)
2(10 12)
2(20 21)
2(22 23)
1(55)
3(26 27 39)
3(30 31 33)
3(32 33 34)
1(56)
1(57)
2(29 37)
3(38 39 52)
3(40 9 52)
3(40 61 62)
3(60 62 27)
2(41 42)
2(43 44)
2(45 46)
3(65 67 61)
3(65 66 67)
)

// featurePointEdges

36
(
6(42 43 25 78 50 0)
5(0 48 7 53 1)
4(42 2 11 1)
6(2 64 41 21 84 43)
7(44 40 23 75 34 16 45)
6(3 56 66 15 62 45)
5(44 4 5 55 3)
6(4 46 47 26 82 40)
4(46 6 12 5)
6(6 59 61 24 80 47)
6(48 50 71 69 68 49)
6(7 54 66 20 67 49)
6(51 52 13 88 87 8)
4(8 29 89 9)
5(51 10 92 30 9)
6(52 57 14 97 93 10)
6(53 54 15 63 64 11)
6(55 12 59 60 20 56)
6(57 58 17 95 94 13)
6(58 65 19 90 91 14)
6(60 67 68 70 76 61)
8(62 16 100 39 22 73 41 63)
5(65 18 28 96 17)
4(18 86 27 19)
6(69 72 93 92 77 70)
6(71 78 79 91 97 72)
6(73 74 28 86 85 21)
7(74 96 95 31 38 101 22)
8(23 82 83 88 94 31 99 32)
4(75 33 37 32)
5(33 98 35 100 34)
6(76 77 30 89 81 24)
6(25 84 85 27 90 79)
6(80 81 29 87 83 26)
5(98 37 99 38 36)
4(35 39 101 36)
)

// regionEdges
0()


// ************************************************************************* //
