FoamFile
{
    version     2.0;
    format      ascii;
    class       dictionary;
    object      blockMeshDict;
}

// Exported by SnappyHexMesh GUI add-on for Blender v1.0
// Source file: /home/gagan/Documents/room.blend
// Export date: 2022-12-25 00:17:13.672725

scale 1;

vertices
(
    ( -0.4 -0.2 -0.1 )
    ( 0.7 -0.2 -0.1 )
    ( 0.7 0.2 -0.1 )
    ( -0.4 0.2 -0.1 )
    ( -0.4 -0.2 0.2 )
    ( 0.7 -0.2 0.2 ) 
    ( 0.7 0.2 0.2 ) 
    ( -0.4 0.2 0.2 ) 
);

blocks
(
    hex (0 1 2 3 4 5 6 7) (11 4 3) simpleGrading (1 1 1)
);

edges
(
);

boundary
(
    world
    {
        type patch;
        faces
        (
            (3 7 6 2)
            (0 4 7 3)
            (2 6 5 1)
            (1 5 4 0)
            (0 3 2 1)
            (4 5 6 7)
        );
    }
);
