
/*--------------------------------*- C++ -*----------------------------------*\
| =========                 |                                                 |
| \\      /  F ield         | OpenFOAM: The Open Source CFD Toolbox           |
|  \\    /   O peration     | Version:  2206                                  |
|   \\  /    A nd           | Website:  www.openfoam.com                      |
|    \\/     M anipulation  |                                                 |
\*---------------------------------------------------------------------------*/
FoamFile
{
    version     2.0;
    format      ascii;
    arch        "LSB;label=32;scalar=64";
    class       dictionary;
    location    "system";
    object      controlDict;
}
// * * * * * * * * * * * * * * * * * * * * * * * * * * * * * * * * * * * * * //



application       rhoPimpleFoam;

startFrom         startTime;

startTime         0;

stopAt            endTime;

endTime           0.3;

deltaT            0.0002;

writeControl      timeStep;

writeInterval       10;

purgeWrite           0;

writeFormat           ascii;

writePrecision      6;


writeCompression    off;


timeFormat         general;

timePrecision       6;


runTimeModifiable   true;

adjustTimeStep  no;

maxCo    0.5;

functions
{

}
