/*--------------------------------*- C++ -*----------------------------------*\
| =========                 |                                                 |
| \\      /  F ield         | OpenFOAM: The Open Source CFD Toolbox           |
|  \\    /   O peration     | Version:  2206                                  |
|   \\  /    A nd           | Website:  www.openfoam.com                      |
|    \\/     M anipulation  |                                                 |
\*---------------------------------------------------------------------------*/
FoamFile
{
    version     2.0;
    format      ascii;
    arch        "LSB;label=32;scalar=64";
    class       dictionary;
    location    "system";
    object      setFieldsDict;
}
// * * * * * * * * * * * * * * * * * * * * * * * * * * * * * * * * * * * * * //



defaultFieldValues
(
   //volScalarFieldValue T 300
   //volScalarFieldValue p 101325
   //volVectorFieldValue U (0 0 0)
);

regions
(
       sphereToCell
       {
           centre (6 3 6);
           radius 0.08;
           fieldValues
           (
                volScalarFieldValue p 123765
           );
       }
);
